35

H 1.228024        0.709000        0.000000
H 1.228024        2.127000        0.000000
H 2.456048        2.836000        0.000000
H 13.508265        0.709000        0.000000
H 13.508265        2.127000        0.000000
H 14.736288        2.836000        0.000000
H 17.192337        0.000000        0.000000
H 17.192337        2.836000        0.000000
H 19.648384        0.000000        0.000000
H 18.420361        0.709000        0.000000
H 18.420361        2.127000        0.000000
H 19.648384        2.836000        0.000000
H 36.840721        2.836000        0.000000
H 6.140120        6.381000        0.000000
H 7.368144        7.090000        0.000000
H 9.824192        4.254000        0.000000
H 15.964313        6.381000        0.000000
H 17.192337        7.090000        0.000000
H 19.648384        4.254000        0.000000
H 18.420361        4.963000        0.000000
H 18.420361        6.381000        0.000000
H 19.648384        7.090000        0.000000
H 22.104433        4.254000        0.000000
H 20.876408        4.963000        0.000000
H 20.876408        6.381000        0.000000
H 22.104433        7.090000        0.000000
H 24.560480        4.254000        0.000000
H 23.332457        4.963000        0.000000
H 34.384674        7.090000        0.000000
H 36.840721        4.254000        0.000000
H 35.612698        4.963000        0.000000
H 35.612698        6.381000        0.000000
H 36.840721        7.090000        0.000000
H 38.068745       40.412998        0.000000
H 39.296768       41.122002        0.000000
 